psse_raw/case10_radial_series_reductions.raw
0, 100.0, 33, 0, 1, 60.0    / PSS/E 33.3 RAW via PowerFlows.jl, 2025-09-12T14:56:07.554
case10_radial_series_reductions
PSS/E 33.3 RAW via PowerFlows.jl, 2025-09-12T14:56:07.554
1, 'HV', 110.0, 3, , , , 1.0, 0.0, 1.1, 0.9, , 
2, 'MV', 33.0, 1, , , , 1.0, 0.0, 1.1, 0.9, , 
3, 'LV', 11.0, 1, , , , 1.0, 0.0, 1.1, 0.9, , 
4, 'loop1', 110.0, 1, , , , 1.0, 0.0, 2.0, 0.0, , 
5, 'loop2', 110.0, 1, , , , 1.0, 0.0, 2.0, 0.0, , 
6, 'series1', 33.0, 1, , , , 1.0, 0.0, 2.0, 0.0, , 
7, 'series2', 33.0, 1, , , , 1.0, 0.0, 2.0, 0.0, , 
8, 'series3', 33.0, 1, , , , 1.0, 0.0, 2.0, 0.0, , 
9, 'radial1', 11.0, 1, , , , 1.0, 0.0, 2.0, 0.0, , 
10, 'radial2', 11.0, 1, , , , 1.0, 0.0, 2.0, 0.0, , 
999, 'starbus', 11.0, 1, , , , 1.0, 0.0, 1.1, 0.9, , 
0 / End of Bus Data, Begin Load Data
10, '1', 1, , , 0.2, 0.1, , , , , , , 
0 / End of Load Data, Begin Fixed Shunt Data
0 / End of Fixed Shunt Data, Begin Generator Data
1, '1', 50.0, 0.0, 100.0, -100.0, 1.0, , 100.0, , , , , , 1, , 100.0, 0.0, , , , , , , , , , 
0 / End of Generator Data, Begin Non-Transformer Branch Data
1, 4, '4', 0.01, 0.1, 0.0, 100.0, , , 0.0, 0.0, 0.0, 0.0, 1, , , , , , , , , , 
1, 5, '5', 0.01, 0.1, 0.0, 100.0, , , 0.0, 0.0, 0.0, 0.0, 1, , , , , , , , , , 
2, 6, '2', 0.01, 0.1, 0.0, 100.0, , , 0.0, 0.0, 0.0, 0.0, 1, , , , , , , , , , 
2, 6, '6', 0.01, 0.1, 0.0, 100.0, , , 0.0, 0.0, 0.0, 0.0, 1, , , , , , , , , , 
3, 9, '2', 0.01, 0.1, 0.0, 100.0, , , 0.0, 0.0, 0.0, 0.0, 1, , , , , , , , , , 
3, 9, '9', 0.01, 0.1, 0.0, 100.0, , , 0.0, 0.0, 0.0, 0.0, 1, , , , , , , , , , 
4, 5, '5', 0.01, 0.1, 0.0, 100.0, , , 0.0, 0.0, 0.0, 0.0, 1, , , , , , , , , , 
6, 7, '7', 0.01, 0.1, 0.0, 100.0, , , 0.0, 0.0, 0.0, 0.0, 1, , , , , , , , , , 
7, 8, '8', 0.01, 0.1, 0.0, 100.0, , , 0.0, 0.0, 0.0, 0.0, 1, , , , , , , , , , 
8, 6, '6', 0.01, 0.1, 0.0, 100.0, , , 0.0, 0.0, 0.0, 0.0, 1, , , , , , , , , , 
9, 10, '10', 0.01, 0.1, 0.0, 100.0, , , 0.0, 0.0, 0.0, 0.0, 1, , , , , , , , , , 
0 / End of Non-Transformer Branch Data, Begin Transformer Data
0 / End of Transformer Data, Begin Area Interchange Data
0 / End of Area Interchange Data, Begin Two-Terminal DC Transmission Line Data
0 / End of Two-Terminal DC Transmission Line Data, Begin Voltage Source Converter (VSC) DC Transmission Line Data
0 / End of Voltage Source Converter (VSC) DC Transmission Line Data, Begin Transformer Impedance Correction Tables
0 / End of Transformer Impedance Correction Tables, Begin Multi-Terminal DC Transmission Line Data
0 / End of Multi-Terminal DC Transmission Line Data, Begin Multi-Section Line Grouping Data
0 / End of Multi-Section Line Grouping Data, Begin Zone Data
0 / End of Zone Data, Begin Interarea Transfer Data
0 / End of Interarea Transfer Data, Begin Owner Data
0 / End of Owner Data, Begin FACTS Device Data
0 / End of FACTS Device Data, Begin Switched Shunt Data
0 / End of Switched Shunt Data, Begin GNE Device Data
0 / End of GNE Device Data, Begin Induction Machine Data
0 / End of Induction Machine Data
Q
